      18
GEOMETRY FILE / created by CPMD
  O      0.637044650331     -0.702416739497      1.337934115544             -0.000002098698     -0.000010218808      0.000031420959
  O     -1.599516711988     -0.099524951766      0.043280453007              0.000037450460     -0.000081487122      0.000066427013
  O      1.533050831448      2.028514085393      1.378038734079             -0.000032759991      0.000026736097     -0.000002244253
  O     -0.807685879050      2.484044281766     -0.196854899977              0.000007913175     -0.000031092603     -0.000023610230
  O     -0.841913798288     -1.858033125779     -1.918273824866              0.000049926302      0.000092809677      0.000039797981
  O      1.335639756244     -2.678476559075     -0.358040998369              0.000008505383     -0.000146860300      0.000024915892
  H      1.030476412923     -1.394508686104      0.775612672403             -0.000088414830      0.000228411043     -0.000341710485
  H      1.268172111310      0.047871829046      1.201942203480             -0.000388776770     -0.000038604848     -0.000204409637
  H     -2.323546829389     -0.080727401618      0.702103085836              0.000270359108      0.000355684407     -0.000180351831
  H     -0.798580657156     -0.363597834921      0.621194963912             -0.000321369280      0.000014917109     -0.000187178436
  H      0.782339013112      2.360273410128      0.766720228201             -0.000324676060      0.000405167683     -0.000204681119
  H      1.187683147492      2.316647886969      2.236239693787             -0.000341472412      0.000322982541      0.000223667537
  H     -1.232769100038      1.589325775473     -0.138364041464             -0.000162966727      0.000017526925     -0.000437088874
  H     -0.661862188510      2.627871362398     -1.160519160561              0.000531372941     -0.000107796105      0.000149102101
  H     -1.408768106973     -2.252713126940     -2.592679028966              0.000366470446     -0.000358998350     -0.000350962221
  H     -1.385707565644     -1.265034559887     -1.338043983748             -0.000370524456      0.000518647877     -0.000199067052
  H      0.525117759609     -2.464002095466     -0.883636802644             -0.000064008258      0.000477220228     -0.000356975301
  H      2.075083871893     -2.505797177351     -0.971492202450             -0.000336452417      0.000178217693      0.000124267061
