      18
GEOMETRY FILE / created by CPMD
  O      1.186059642441      0.024454482668      2.213981205500              0.000035059161     -0.000044107688     -0.000007449231
  O     -1.330889263692      0.260638915115      1.570489601715             -0.000042742857      0.000072970270      0.000008309868
  O      1.974249413537      1.121991927146     -2.044409330894             -0.000053123398     -0.000040035555     -0.000036526468
  O     -0.731638009518      1.086029453170     -1.647471479500              0.000048144656     -0.000113618936     -0.000080480684
  O     -1.012789936294     -1.572897342756     -0.223139604318              0.000025225076      0.000067803853      0.000032849105
  O      1.956567105694     -0.984176063923     -0.035812805762              0.000049501937      0.000093989850      0.000036364224
  H      1.774237289496     -0.341151095433      1.426649929838              0.000050157813      0.000394862113      0.000215077216
  H      1.729834786639     -0.079222029825      3.025591206984             -0.000122239332     -0.000112780071     -0.000488723964
  H     -1.874719917735      0.555404522011      2.323312655235              0.000259237209      0.000162670473      0.000387731966
  H     -0.377393889325      0.281806639721      1.928347535557             -0.000137309834      0.000021517009     -0.000072649497
  H      0.963531087546      1.239293291965     -2.034097291538              0.000152543063     -0.000121669995     -0.000418375968
  H      2.186685011147      1.066993306362     -2.987441061607             -0.000135906698      0.000069602740      0.000290317648
  H     -0.954735052761      1.745181977177     -0.925888090377              0.000018558910     -0.000326690300      0.000416675424
  H     -1.030949160514      0.215406410504     -1.279899475901              0.000016460149     -0.000036921534     -0.000091516902
  H     -1.652390617471     -2.199599477101     -0.558398460256             -0.000063640883     -0.000090638204     -0.000226027583
  H     -1.365336241046     -0.921010766570      0.495555366338             -0.000076197894      0.000158100751     -0.000294928726
  H      1.026169943202     -1.345786351098     -0.222250829639              0.000042801426      0.000241612134     -0.000145112267
  H      2.056643144759     -0.323397101692     -0.797837115066              0.000061324752     -0.000158116888      0.000599287057
